BRD4, Ligand 6
     RDKit          3D

 27 29  0  0  0  0  0  0  0  0999 V2000
    2.5927    1.1223   12.4793 O   0  0  0  0  0  0  0  0  0  0  0  0
    2.9507    1.7781   13.6931 C   0  0  0  0  0  0  0  0  0  0  0  0
    2.4495   -0.2656   12.3408 C   0  0  0  0  0  0  0  0  0  0  0  0
    2.0215   -0.7699   11.1073 C   0  0  0  0  0  0  0  0  0  0  0  0
    1.8446   -2.1540   10.9067 C   0  0  0  0  0  0  0  0  0  0  0  0
    2.2739   -5.2418   12.9324 N   0  0  0  0  0  0  0  0  0  0  0  0
    1.1962   -1.8752    8.5006 C   0  0  0  0  0  0  0  0  0  0  0  0
    1.4268   -2.6634    9.6636 O   0  0  0  0  0  0  0  0  0  0  0  0
    2.1158   -3.0439   11.9760 C   0  0  0  0  0  0  0  0  0  0  0  0
    4.5703   -8.0113   18.4099 O   0  0  0  0  0  0  0  0  0  0  0  0
    2.8961   -3.3803   14.2225 N   0  0  0  0  0  0  0  0  0  0  0  0
    1.9560   -4.4411   11.8778 C   0  0  0  0  0  0  0  0  0  0  0  0
    2.7693   -4.7282   14.0955 C   0  0  0  0  0  0  0  0  0  0  0  0
    5.3918   -9.3919   20.7394 O   0  0  0  0  0  0  0  0  0  0  0  0
    1.4988   -4.9677   10.8246 O   0  0  0  0  0  0  0  0  0  0  0  0
    3.1811   -5.6094   15.2248 C   0  0  0  0  0  0  0  0  0  0  0  0
    3.5370   -6.9549   15.0181 C   0  0  0  0  0  0  0  0  0  0  0  0
    3.9582   -7.7611   16.0863 C   0  0  0  0  0  0  0  0  0  0  0  0
    4.3616   -9.1877   15.8370 C   0  0  0  0  0  0  0  0  0  0  0  0
    4.0764   -7.2093   17.3740 C   0  0  0  0  0  0  0  0  0  0  0  0
    5.8628   -7.8209   18.9784 C   0  0  0  0  0  0  0  0  0  0  0  0
    6.2925   -9.0909   19.7042 C   0  0  0  0  0  0  0  0  0  0  0  0
    3.6891   -5.8719   17.6043 C   0  0  0  0  0  0  0  0  0  0  0  0
    3.7661   -5.2572   18.9766 C   0  0  0  0  0  0  0  0  0  0  0  0
    3.2620   -5.0834   16.5253 C   0  0  0  0  0  0  0  0  0  0  0  0
    2.5743   -2.5329   13.2103 C   0  0  0  0  0  0  0  0  0  0  0  0
    2.7225   -1.1560   13.3925 C   0  0  0  0  0  0  0  0  0  0  0  0
  1  2  1  0
  1  3  1  0
  3  4  2  0
  3 27  1  0
  4  5  1  0
  5  8  1  0
  5  9  2  0
  6 12  1  0
  6 13  1  0
  7  8  1  0
  9 12  1  0
  9 26  1  0
 10 20  1  0
 10 21  1  0
 11 13  2  0
 11 26  1  0
 12 15  2  0
 13 16  1  0
 14 22  1  0
 16 17  2  0
 16 25  1  0
 17 18  1  0
 18 19  1  0
 18 20  2  0
 20 23  1  0
 21 22  1  0
 23 24  1  0
 23 25  2  0
 26 27  2  0
M  END
$$$$
