BRD4, Ligand 5
     RDKit          3D

 22 25  0  0  1  0  0  0  0  0999 V2000
    2.3519   -1.0938   13.3358 C   0  0  0  0  0  0  0  0  0  0  0  0
    2.7405    0.0969   13.9899 C   0  0  0  0  0  0  0  0  0  0  0  0
    3.2690    1.1777   13.2860 C   0  0  0  0  0  0  0  0  0  0  0  0
    3.7370    2.6383   14.1393 Cl  0  0  0  0  0  0  0  0  0  0  0  0
    3.4423    1.0908   11.9095 C   0  0  0  0  0  0  0  0  0  0  0  0
    3.0766   -0.0705   11.2337 C   0  0  0  0  0  0  0  0  0  0  0  0
    2.5010   -1.1641   11.9113 C   0  0  0  0  0  0  0  0  0  0  0  0
    2.2104   -2.3559   11.1514 N   0  0  0  0  0  0  0  0  0  0  0  0
    1.7260   -2.4946    9.8939 C   0  0  0  0  0  0  0  0  0  0  0  0
    1.2042   -1.3917    9.0257 C   0  0  0  0  0  0  0  0  0  0  0  0
    1.7018   -3.7884    9.5177 N   0  0  0  0  0  0  0  0  0  0  0  0
    2.1551   -4.4974   10.5401 N   0  0  0  0  0  0  0  0  0  0  0  0
    2.4761   -3.6210   11.5114 C   0  0  0  0  0  0  0  0  0  0  0  0
    2.7211   -4.0097   12.9221 C   0  0  0  0  0  0  0  0  0  0  0  0
    1.5896   -3.5358   13.7224 N   0  0  0  0  0  0  0  0  0  0  0  0
    1.7559   -2.1731   14.2625 C   0  0  0  0  0  0  0  0  0  0  0  0
    0.4300   -1.6999   14.8331 C   0  0  0  0  0  0  0  0  0  0  0  0
   -0.6011   -1.2599   13.9792 C   0  0  0  0  0  0  0  0  0  0  0  0
   -1.8312   -0.8550   14.5058 C   0  0  0  0  0  0  0  0  0  0  0  0
   -2.0482   -0.8942   15.8871 C   0  0  0  0  0  0  0  0  0  0  0  0
   -1.0382   -1.3435   16.7430 C   0  0  0  0  0  0  0  0  0  0  0  0
    0.1937   -1.7503   16.2204 C   0  0  0  0  0  0  0  0  0  0  0  0
  1  2  2  0
  1  7  1  0
  1 16  1  0
  2  3  1  0
  3  4  1  0
  3  5  2  0
  5  6  1  0
  6  7  2  0
  7  8  1  0
  8  9  1  0
  8 13  1  0
  9 10  1  0
  9 11  2  0
 11 12  1  0
 12 13  2  0
 13 14  1  0
 14 15  1  0
 15 16  1  0
 16 17  1  0
 17 18  2  0
 17 22  1  0
 18 19  1  0
 19 20  2  0
 20 21  1  0
 21 22  2  0
M  END
$$$$
