BRD4, Ligand 8
     RDKit          3D

 24 26  0  0  0  0  0  0  0  0999 V2000
    3.4459    5.9742   12.9526 O   0  0  0  0  0  0  0  0  0  0  0  0
    3.5029    6.1771   11.5442 C   0  0  0  0  0  0  0  0  0  0  0  0
    3.2981    4.7221   13.5689 C   0  0  0  0  0  0  0  0  0  0  0  0
    3.2581    4.6722   14.9653 C   0  0  0  0  0  0  0  0  0  0  0  0
    3.1123    3.4472   15.6482 C   0  0  0  0  0  0  0  0  0  0  0  0
    2.7465   -0.1322   14.7071 N   0  0  0  0  0  0  0  0  0  0  0  0
    3.1913    4.5296   17.9098 C   0  0  0  0  0  0  0  0  0  0  0  0
    3.0767    3.3979   17.0531 O   0  0  0  0  0  0  0  0  0  0  0  0
    3.0017    2.2495   14.8991 C   0  0  0  0  0  0  0  0  0  0  0  0
    2.3938   -4.6647   10.0150 O   0  0  0  0  0  0  0  0  0  0  0  0
    2.9551    1.1671   12.7590 N   0  0  0  0  0  0  0  0  0  0  0  0
    2.8403    0.9774   15.4909 C   0  0  0  0  0  0  0  0  0  0  0  0
    2.8136   -0.0496   13.3464 C   0  0  0  0  0  0  0  0  0  0  0  0
    2.7739    0.8474   16.7437 O   0  0  0  0  0  0  0  0  0  0  0  0
    2.7184   -1.2612   12.4925 C   0  0  0  0  0  0  0  0  0  0  0  0
    2.1759   -1.1662   11.2018 C   0  0  0  0  0  0  0  0  0  0  0  0
    2.0907   -2.2934   10.3717 C   0  0  0  0  0  0  0  0  0  0  0  0
    1.4676   -2.1651    9.0090 C   0  0  0  0  0  0  0  0  0  0  0  0
    2.5277   -3.5454   10.8435 C   0  0  0  0  0  0  0  0  0  0  0  0
    3.0919   -3.6502   12.1349 C   0  0  0  0  0  0  0  0  0  0  0  0
    3.5955   -4.9685   12.6582 C   0  0  0  0  0  0  0  0  0  0  0  0
    3.1875   -2.5056   12.9435 C   0  0  0  0  0  0  0  0  0  0  0  0
    3.0485    2.3062   13.4894 C   0  0  0  0  0  0  0  0  0  0  0  0
    3.1937    3.5307   12.8335 C   0  0  0  0  0  0  0  0  0  0  0  0
  1  2  1  0
  1  3  1  0
  3  4  2  0
  3 24  1  0
  4  5  1  0
  5  8  1  0
  5  9  2  0
  6 12  1  0
  6 13  1  0
  7  8  1  0
  9 12  1  0
  9 23  1  0
 10 19  1  0
 11 13  2  0
 11 23  1  0
 12 14  2  0
 13 15  1  0
 15 16  2  0
 15 22  1  0
 16 17  1  0
 17 18  1  0
 17 19  2  0
 19 20  1  0
 20 21  1  0
 20 22  2  0
 23 24  2  0
M  END
$$$$
