BRD4, Ligand 4
     RDKit          3D

 13 14  0  0  0  0  0  0  0  0999 V2000
    2.9220   -4.6057    9.8531 O   0  0  0  0  0  0  0  0  0  0  0  0
    2.7135   -3.6207   10.6123 C   0  0  0  0  0  0  0  0  0  0  0  0
    3.0399   -3.7187   11.9968 N   0  0  0  0  0  0  0  0  0  0  0  0
    2.7225   -2.6489   12.8901 C   0  0  0  0  0  0  0  0  0  0  0  0
    2.8934   -2.8180   14.2721 C   0  0  0  0  0  0  0  0  0  0  0  0
    2.5720   -1.7834   15.1536 C   0  0  0  0  0  0  0  0  0  0  0  0
    2.0824   -0.5711   14.6611 C   0  0  0  0  0  0  0  0  0  0  0  0
    1.6535    0.8461   15.8674 Br  0  0  0  0  0  0  0  0  0  0  0  0
    1.9147   -0.3928   13.2843 C   0  0  0  0  0  0  0  0  0  0  0  0
    2.2226   -1.4307   12.3893 C   0  0  0  0  0  0  0  0  0  0  0  0
    2.0972   -1.1822   10.9038 C   0  0  0  0  0  0  0  0  0  0  0  0
    2.1327   -2.4110   10.0964 N   0  0  0  0  0  0  0  0  0  0  0  0
    1.7260   -2.3499    8.6909 C   0  0  0  0  0  0  0  0  0  0  0  0
  1  2  2  0
  2  3  1  0
  2 12  1  0
  3  4  1  0
  4  5  1  0
  4 10  2  0
  5  6  2  0
  6  7  1  0
  7  8  1  0
  7  9  2  0
  9 10  1  0
 10 11  1  0
 11 12  1  0
 12 13  1  0
M  END
$$$$
