BRD4, Ligand 3
     RDKit          3D

 28 30  0  0  1  0  0  0  0  0999 V2000
   -2.3607   -1.5903   17.9571 O   0  0  0  0  0  0  0  0  0  0  0  0
   -1.4918   -1.8803   17.0938 C   0  0  0  0  0  0  0  0  0  0  0  0
   -1.2732   -3.3192   16.7482 C   0  0  0  0  0  0  0  0  0  0  0  0
   -0.7708   -0.8220   16.4412 N   0  0  0  0  0  0  0  0  0  0  0  0
    0.3287   -1.0510   15.4898 C   0  0  0  0  0  0  0  0  0  0  0  0
    1.6153   -1.5442   16.1751 C   0  0  0  0  0  0  0  0  0  0  0  0
    1.8300   -1.1115   17.4965 C   0  0  0  0  0  0  0  0  0  0  0  0
    0.6140    0.2322   14.6729 C   0  0  0  0  0  0  0  0  0  0  0  0
    1.8912    0.1522   13.8117 C   0  0  0  0  0  0  0  0  0  0  0  0
    2.0286   -1.1933   13.1322 C   0  0  0  0  0  0  0  0  0  0  0  0
    1.8731   -1.2830   11.7412 C   0  0  0  0  0  0  0  0  0  0  0  0
    1.9958   -2.5165   11.0856 C   0  0  0  0  0  0  0  0  0  0  0  0
    2.2111   -3.6769   11.8358 C   0  0  0  0  0  0  0  0  0  0  0  0
    2.3269   -3.6188   13.2352 C   0  0  0  0  0  0  0  0  0  0  0  0
    2.5075   -4.8223   13.9312 O   0  0  0  0  0  0  0  0  0  0  0  0
    1.6314   -5.2711   14.9634 C   0  0  0  0  0  0  0  0  0  0  0  0
    2.3093   -4.8981   11.1660 O   0  0  0  0  0  0  0  0  0  0  0  0
    1.2758   -5.8730   11.2418 C   0  0  0  0  0  0  0  0  0  0  0  0
    1.9043   -2.6370    9.6882 O   0  0  0  0  0  0  0  0  0  0  0  0
    1.6268   -1.5666    8.7911 C   0  0  0  0  0  0  0  0  0  0  0  0
    2.2837   -2.3641   13.8939 C   0  0  0  0  0  0  0  0  0  0  0  0
    2.5503   -2.2469   15.3672 C   0  0  0  0  0  0  0  0  0  0  0  0
    3.7735   -2.7816   15.7891 C   0  0  0  0  0  0  0  0  0  0  0  0
    4.2872   -2.9182   17.0684 C   0  0  0  0  0  0  0  0  0  0  0  0
    3.8544   -2.3731   18.2682 C   0  0  0  0  0  0  0  0  0  0  0  0
    2.7815   -1.4912   18.4444 C   0  0  0  0  0  0  0  0  0  0  0  0
    2.6393   -0.9864   19.5906 O   0  0  0  0  0  0  0  0  0  0  0  0
    4.6220   -2.7303   19.3809 O   0  0  0  0  0  0  0  0  0  0  0  0
  1  2  2  0
  2  3  1  0
  2  4  1  0
  4  5  1  0
  5  6  1  0
  5  8  1  0
  6  7  2  0
  6 22  1  0
  7 26  1  0
  8  9  1  0
  9 10  1  0
 10 11  1  0
 10 21  2  0
 11 12  2  0
 12 13  1  0
 12 19  1  0
 13 14  2  0
 13 17  1  0
 14 15  1  0
 14 21  1  0
 15 16  1  0
 17 18  1  0
 19 20  1  0
 21 22  1  0
 22 23  2  0
 23 24  1  0
 24 25  2  0
 25 26  1  0
 25 28  1  0
 26 27  2  0
M  END
$$$$
