BRD4, Ligand 2
     RDKit          3D

 17 19  0  0  0  0  0  0  0  0999 V2000
    2.1416   -0.4897   12.8243 C   0  0  0  0  0  0  0  0  0  0  0  0
    2.7895    0.7361   12.5860 C   0  0  0  0  0  0  0  0  0  0  0  0
    2.8081    1.7289   13.5705 C   0  0  0  0  0  0  0  0  0  0  0  0
    2.8093   -4.7061   12.9637 C   0  0  0  0  0  0  0  0  0  0  0  0
    2.1774    1.5108   14.7977 C   0  0  0  0  0  0  0  0  0  0  0  0
    1.5249    0.3000   15.0419 C   0  0  0  0  0  0  0  0  0  0  0  0
    1.5044   -0.6964   14.0609 C   0  0  0  0  0  0  0  0  0  0  0  0
    2.3325   -3.8152   11.1495 C   0  0  0  0  0  0  0  0  0  0  0  0
    2.0832   -3.5482    9.8457 N   0  0  0  0  0  0  0  0  0  0  0  0
    2.6186   -5.0265   11.6572 N   0  0  0  0  0  0  0  0  0  0  0  0
    2.1176   -1.5410   11.7789 C   0  0  0  0  0  0  0  0  0  0  0  0
    3.1502   -5.6688   13.9572 N   0  0  0  0  0  0  0  0  0  0  0  0
    1.8370   -2.2580    9.4707 C   0  0  0  0  0  0  0  0  0  0  0  0
    1.5694   -1.9422    8.0339 C   0  0  0  0  0  0  0  0  0  0  0  0
    2.6554   -3.3885   13.2360 N   0  0  0  0  0  0  0  0  0  0  0  0
    2.3462   -2.8500   12.0724 N   0  0  0  0  0  0  0  0  0  0  0  0
    1.8572   -1.2222   10.4316 C   0  0  0  0  0  0  0  0  0  0  0  0
  1  2  2  0
  1  7  1  0
  1 11  1  0
  2  3  1  0
  3  5  2  0
  4 10  1  0
  4 12  1  0
  4 15  2  0
  5  6  1  0
  6  7  2  0
  8  9  1  0
  8 10  2  0
  8 16  1  0
  9 13  2  0
 11 16  1  0
 11 17  2  0
 13 14  1  0
 13 17  1  0
 15 16  1  0
M  END
$$$$
